Circuit: * G:\6TH SEMESTER NOTES\VLSI LAB\VLSI_miniproject (1).asc

Direct Newton iteration for .op point succeeded.

Date: Sun May 16 12:22:37 2021
Total elapsed time: 0.084 seconds.

tnom = 27
temp = 27
method = modified trap
totiter = 7555
traniter = 7543
tranpoints = 2241
accept = 1950
rejected = 291
matrix size = 16
fillins = 0
solver = Normal
Matrix Compiler1: 466 bytes object code size  0.1/0.1/[0.0]
Matrix Compiler2: 968 bytes object code size  0.1/0.1/[0.1]

